18
Properties=species:S:1:pos:R:3:forces:R:3 Rh_ts.log=T energy=-36368.17578125 pbc="F F F"
Rh      -0.23455869      -0.27341413      -0.18354348       0.02095687       0.01184931      -0.02912460
H       -0.62951402      -1.80570626      -0.04294275       0.00666519       0.00711888       0.00276543
H       -0.51787246      -0.45430915      -1.70550689       0.00660999       0.00444640       0.00268269
P        1.94409490      -1.07671392      -0.42029829      -0.00880063      -0.01270476      -0.00364779
H        3.05433060      -0.17254007      -0.25673040       0.00393322       0.00319274      -0.00006482
H        2.33886374      -2.10990538       0.49580455      -0.00277928       0.00441068       0.00616513
H        2.34658817      -1.70393144      -1.65661150      -0.00438352       0.00364067      -0.00352892
P        0.25826203       2.05420705      -0.43017683      -0.01459593      -0.01738656      -0.00744210
H        0.06872888       2.71824250      -1.69965629       0.00075898      -0.00147831      -0.00204533
H       -0.48678005       2.96650295       0.39297995       0.00193693      -0.00625530       0.00551859
H        1.58657601       2.53111784      -0.14845672       0.00125197      -0.00103980       0.00316577
Cl       0.25048478       0.02065834       2.22856066      -0.00095870       0.00083508       0.02076030
C       -2.21212212      -1.16679418       0.25342923       0.01960176       0.01248547       0.00358626
H       -2.60142958      -1.80823373      -0.54132481      -0.00767190      -0.00363747       0.00733715
H       -2.19170155      -1.60913419       1.25326467      -0.00887777      -0.01062873      -0.00187308
C       -2.31501415       0.22940657       0.13183659      -0.01969051       0.02145818      -0.00690223
H       -2.36380921       0.83316475       1.04149862       0.00445770      -0.01006885       0.00412050
H       -2.76415728       0.65847247      -0.76736629       0.00158586      -0.00623769      -0.00147285
